20
1th -115205.824647860 eV
Au       0.511824429   -1.169607045    3.232607036
Au       0.683819193    2.656289135    0.675783108
Au       0.682314742    2.238205273   -2.157241689
Au       0.673736779   -2.782827576    0.831586107
Au       2.310501463   -0.006459137   -2.873991580
Au       3.088053815   -1.928679999    2.312596476
Au       2.648668983   -1.200968203   -0.377803422
Au       2.202965246    0.667133706    1.839833262
Au       2.988600779    1.623088628   -0.668422253
Au       0.338272826   -1.830489580   -1.818783651
Au      -0.343180945    0.131190438   -3.748985035
Au      -0.323941120    1.521194498    3.051983509
Au      -0.328481460   -0.127975687    0.531485479
Au      -1.854125810   -3.106647514   -0.489058696
Au      -1.862672551   -2.099275618    2.127462242
Au      -1.219893167    3.905667527   -0.857677718
Au      -1.934077606    1.265838449   -1.686147501
Au      -2.219843882    2.000372927    1.035514599
Au      -2.393271129   -1.375977160   -2.554470677
Au      -3.122270413   -0.547072394    0.126731591