20
2th -115206.279704035 eV
Au       0.708749260   -1.272978637    3.374406948
Au       0.548867363    2.797672055    0.824225781
Au       0.293661600    2.088113683   -2.016682169
Au      -0.278922956   -2.694329038    1.057526254
Au       2.254656334    0.168500607   -2.658899566
Au       2.505176762   -2.144358341    1.429380136
Au       3.775293080   -0.574197488   -0.466934856
Au       2.186314685    0.669895482    1.719387767
Au       2.814701507    2.094492914   -0.665738795
Au       1.526063987   -2.188225544   -1.245527040
Au      -0.369764162   -0.621228642   -2.868921004
Au      -0.240454948    1.397234737    3.114079279
Au       0.039019940   -0.028625841   -0.002127822
Au      -1.113262372   -3.079636193   -1.577166630
Au      -1.883213622   -0.820351675    2.486457647
Au      -1.587694611    3.724944514   -0.703846962
Au      -2.366527042    1.135268206   -1.825430117
Au      -2.160762305    1.553392815    0.992557580
Au      -3.034600567   -1.495510353   -2.874154037
Au      -2.653181806   -1.138830627   -0.132979057