20
32th -115206.601729138 eV
Au      -0.439756843   -3.808178797    2.447457287
Au      -0.014885755    3.403760937    1.176480527
Au       3.676188772    1.102213152   -1.025099333
Au      -0.296712836   -2.763949709   -0.094750767
Au       1.950257729   -0.004771062   -2.869457060
Au       1.530368844   -1.927631170    2.361421011
Au       3.433346706   -0.005734164    1.946142847
Au       2.645641031    2.743119177    1.176455127
Au       5.280481555    1.828942795    1.082545752
Au       1.863580090   -2.949019912   -2.144715007
Au       0.959658104    1.937587110   -1.035624667
Au       0.686781527    0.753131353    1.852747832
Au       1.935981586   -0.962861214   -0.236238464
Au      -0.536698404   -1.668497324   -2.583965427
Au      -1.392819812   -1.214166411    2.104997082
Au      -1.838784433    2.667013969   -0.843468252
Au      -0.953239714    1.126479631   -2.967021462
Au      -2.066204688    1.472221264    1.755069128
Au       0.195273269   -0.447891885   -4.948676862
Au      -1.542489118   -0.153848748   -0.482190505