20
33th -115206.711606033 eV
Au      -0.367870766   -4.037489803    2.439583130
Au      -0.440887695    3.176122132    1.019497992
Au       3.317508227    0.389332076   -2.232563715
Au       0.647996542   -3.062916310    0.073876842
Au       2.239527158   -0.724087991   -4.555427287
Au       1.441797808   -1.933261086    2.622390043
Au       3.115303795    0.240695195    2.582074677
Au       2.172776745    2.824357933    1.771411179
Au       4.145839894    1.456583549    0.222082974
Au       1.601504019   -2.007886714   -2.191586878
Au       1.509291186    2.077903209   -0.810714829
Au       0.380545089    0.578875944    1.797279477
Au       2.654334354   -1.019046604    0.154056186
Au      -0.839278756   -0.770106299   -1.073852958
Au      -1.389682320   -1.639105235    1.587105107
Au      -3.079675352    3.312567300    0.136361558
Au       0.535851191    0.878008707   -3.082457766
Au      -2.287107597    0.783398701    0.842639561
Au      -0.606210063   -1.540080304   -3.813723516
Au      -1.263348670    2.128456566   -1.549164689