18
9th -103685.097165109 eV
Au      -0.247160153    1.515212679    3.469929784
Au       1.903530323   -0.448859750   -2.843341636
Au      -1.061260657   -4.070842255   -2.308567321
Au       1.690011553    0.225283967    1.943152466
Au      -0.457367332    1.896508141    0.749233433
Au       2.923522566   -0.961342475   -0.344518175
Au       1.730454979    2.325436432   -3.359254488
Au       1.197185644   -2.715405637   -1.458004390
Au       4.110469690    1.128065046    1.035681819
Au       1.214183345   -2.522878269    1.422217193
Au       2.027454100    1.815043427   -0.645456491
Au      -1.256831324   -2.680552439    0.039605739
Au      -0.478476740    1.432391684   -1.924414831
Au      -3.464789886   -1.616386070    1.366412282
Au      -0.181176517    0.494392273   -4.514673233
Au      -0.918934743   -0.752095753    2.031648358
Au      -1.091723272   -1.319521889   -2.647269838
Au      -2.311945588    0.056611378   -0.480826816
