20
71th -115207.429616813 eV
Au      -0.473619951   -2.542580065    3.400620799
Au       1.037656708    3.356690624   -0.763871533
Au       3.068447799   -0.661571524   -2.801818688
Au      -1.013014513   -2.577048023    0.704317930
Au       0.684318736   -1.460538619   -3.814041022
Au       1.630479646   -1.700616264    1.825373495
Au       3.565728851   -0.792758788    0.157777889
Au       3.254320764    1.869714841   -1.200703085
Au       5.404376227    0.201789028   -1.630574898
Au      -1.440645790   -2.482580366   -1.965214923
Au       0.818162469    1.055908030   -2.453391480
Au       1.338864375    0.911315649    0.693604208
Au       1.134146351   -1.736307150   -0.992157522
Au      -1.411355831   -0.015953105   -0.499475020
Au      -0.824382418   -0.046485572    2.302470141
Au      -1.307761455    4.721238086   -0.302261259
Au      -1.763195173    0.194848340   -3.314147423
Au      -1.102361851    2.349874893    1.081352457
Au      -1.826371523   -2.194673568   -4.674463583
Au      -1.599505846    2.481562758   -1.876142227